       8
 read list vx vy vz qa qb qc qd
C             1.00000000     11.00000000     22.00000000      0.02444273     -0.08474759     -0.05459970      0.33435593      0.64616131      0.35796676     -0.58527043
C            11.00000000     25.00000000     16.00000000     -0.05252562     -0.09662248     -0.05313205      0.84136172      0.40220553      0.31311503     -0.17972240
C            12.00000000     13.00000000     13.00000000     -0.00357519     -0.01860569      0.01875174      0.38084769      0.57071883     -0.56818141      0.45431810
C            25.00000000     31.00000000     16.00000000     -0.05195433      0.06976753      0.10395701      0.24426049     -0.80505068     -0.16706844     -0.51411901
C            21.00000000     15.00000000     30.00000000      0.08737976      0.02796785     -0.05688217      0.68240705     -0.09675712     -0.17304342     -0.70357278
C            27.00000000      5.00000000      5.00000000      0.01885808      0.01485835      0.04816897      0.32947947     -0.76269108      0.21695017      0.51252143
C            17.00000000     32.00000000     28.00000000      0.00607485      0.00008096      0.04667370      0.61955670      0.74291726      0.21183250     -0.13910585
C             5.00000000     23.00000000      2.00000000      0.00301528     -0.04228176     -0.10135132      0.62079960     -0.23190088     -0.65690814      0.35958523
