       8
read list vxx vyy vzz phi theta psi 
C             1.00000000     11.00000000     22.00000000      0.02444273     -0.08474759     -0.05459970      0.88207605      2.99933108      1.47840366
C            11.00000000     25.00000000     16.00000000     -0.05252562     -0.09662248     -0.05313205     -0.06826747      0.86551647      0.73617276
C            12.00000000     13.00000000     13.00000000     -0.00357519     -0.01860569      0.01875174     -1.76173646     -2.87368416     -1.25761072
C            25.00000000     31.00000000     16.00000000     -0.05195433      0.06976753      0.10395701      0.04290386     -2.57998615     -1.14183958
C            21.00000000     15.00000000     30.00000000      0.08737976      0.02796785     -0.05688217     -1.62460658      0.12036524     -0.38151121
C            27.00000000      5.00000000      5.00000000      0.01885808      0.01485835      0.04816897      0.01786538     -2.31406295      1.18038421
C            17.00000000     32.00000000     28.00000000      0.00607485      0.00008096      0.04667370      0.16193324      1.79181539      0.48835381
C             5.00000000     23.00000000      2.00000000      0.00301528     -0.04228176     -0.10135132      1.73136949     -1.53216613     -0.70605945
