     137
 read list vx vy vz phi psi theta
C            17.00000000     19.00000000     22.00000000     -0.00000000      0.00000000     -0.00000000     -2.72628881     -1.48774911     -1.54096029
C            40.00000000     39.00000000     52.00000000      0.00000000      0.00000000     -0.00000000     -0.12818675      1.49929106      0.16772049
C            22.00000000      3.00000000      4.00000000     -0.00000000     -0.00000000      0.00000000     -2.77901430     -1.48257959      0.63972807
C            16.00000000      3.00000000     48.00000000      0.00000000     -0.00000000      0.00000000      0.08626735     -0.96384457      2.93548369
C            33.00000000     39.00000000     36.00000000     -0.00000000     -0.00000000      0.00000000      2.33684781     -1.13282888     -0.53127955
C            29.00000000     16.00000000     59.00000000     -0.00000000     -0.00000000      0.00000000     -2.20017469     -0.36603684     -0.79377476
C            58.00000000     20.00000000     55.00000000     -0.00000000      0.00000000     -0.00000000      0.93228288     -0.57856273      3.11184384
C            10.00000000     43.00000000     49.00000000      0.00000000     -0.00000000      0.00000000      2.56861917     -0.53860241     -0.35084575
C            19.00000000     42.00000000     31.00000000      0.00000000      0.00000000      0.00000000     -0.13025609     -1.31631452      1.71212094
C            23.00000000      8.00000000     27.00000000     -0.00000000      0.00000000      0.00000000      0.33601104      0.39294544     -2.01058187
C            56.00000000     13.00000000     28.00000000      0.00000000      0.00000000      0.00000000      1.00613495      0.03645205      1.84041126
C            63.00000000     38.00000000     45.00000000     -0.00000000     -0.00000000      0.00000000     -2.80005152     -1.05034396      0.73682318
C            12.00000000     62.00000000     28.00000000     -0.00000000     -0.00000000      0.00000000      0.40185979     -0.31729551     -0.91780300
C            44.00000000     61.00000000      2.00000000     -0.00000000      0.00000000      0.00000000      0.16157026      0.91090264     -2.52399974
C             4.00000000     60.00000000     44.00000000     -0.00000000     -0.00000000     -0.00000000     -2.14523967      0.35724234      0.62831056
C            15.00000000     54.00000000     52.00000000     -0.00000000     -0.00000000      0.00000000     -1.73094203      0.19973427      1.26222201
C            49.00000000     11.00000000     59.00000000     -0.00000000     -0.00000000      0.00000000      0.19791140      0.05179358      2.37785235
C            34.00000000     33.00000000      7.00000000      0.00000000      0.00000000     -0.00000000     -1.28230465      0.43519906     -0.33258106
C            12.00000000     24.00000000     43.00000000     -0.00000000      0.00000000      0.00000000     -2.68212564     -1.08602917      1.94277826
C            33.00000000      2.00000000     64.00000000     -0.00000000      0.00000000     -0.00000000      2.56039883      0.18095514     -2.91407345
C            18.00000000     15.00000000     50.00000000      0.00000000      0.00000000     -0.00000000     -2.42872354     -0.39954280     -0.64642054
C            51.00000000      1.00000000     46.00000000     -0.00000000      0.00000000      0.00000000     -0.33924116      0.20222334     -0.68590980
C            59.00000000      1.00000000     24.00000000      0.00000000      0.00000000      0.00000000     -1.86454249      0.32964976     -2.61723056
C            38.00000000     22.00000000     12.00000000      0.00000000      0.00000000      0.00000000      0.75215536     -0.92698168     -1.61540212
C            31.00000000     26.00000000     26.00000000     -0.00000000      0.00000000     -0.00000000      0.17692660      0.10207979      1.06475987
C            23.00000000     51.00000000     26.00000000     -0.00000000     -0.00000000      0.00000000     -0.80103500      1.44103319      0.24210190
C            60.00000000     59.00000000     53.00000000     -0.00000000     -0.00000000      0.00000000     -1.70370436     -0.30901992      1.62588049
C             4.00000000     22.00000000      8.00000000     -0.00000000      0.00000000      0.00000000      1.39474378      0.54131929      2.76643101
C             4.00000000      8.00000000     53.00000000     -0.00000000     -0.00000000      0.00000000     -2.72343777     -0.02524172      0.35593156
C            35.00000000      7.00000000     16.00000000     -0.00000000     -0.00000000      0.00000000     -1.49418561     -0.55135168     -0.50059802
C            56.00000000     43.00000000     32.00000000     -0.00000000     -0.00000000      0.00000000     -2.29444427     -0.66803008     -2.98979259
C            38.00000000     11.00000000     27.00000000      0.00000000     -0.00000000     -0.00000000      0.47349936      0.38795394     -0.61309002
C            26.00000000     56.00000000     50.00000000     -0.00000000     -0.00000000      0.00000000     -0.75762479     -1.47281252     -0.51766224
C            22.00000000     41.00000000     14.00000000      0.00000000     -0.00000000     -0.00000000      2.76130485     -1.20609396      0.62157316
C            16.00000000     32.00000000     11.00000000      0.00000000      0.00000000     -0.00000000      1.07488525      0.09419539     -2.96687022
C            60.00000000     44.00000000      5.00000000      0.00000000      0.00000000     -0.00000000      0.47036478      0.77599762     -2.10654282
C            62.00000000      4.00000000     13.00000000      0.00000000     -0.00000000     -0.00000000      0.52960049      1.35594415      1.58297026
C            29.00000000     26.00000000     47.00000000      0.00000000      0.00000000     -0.00000000     -0.41141515     -0.28394548      2.36300946
C            25.00000000     15.00000000     11.00000000     -0.00000000      0.00000000     -0.00000000     -1.37544695      1.36226927     -1.38195338
C            29.00000000     55.00000000     11.00000000     -0.00000000      0.00000000     -0.00000000     -0.69832576     -1.54057219      0.29998032
C            40.00000000     49.00000000      2.00000000      0.00000000     -0.00000000      0.00000000      0.73501057      0.79494864      0.73043618
C            52.00000000     12.00000000     11.00000000     -0.00000000     -0.00000000     -0.00000000     -0.37397601      0.06016278     -1.73298451
C            42.00000000     12.00000000     43.00000000     -0.00000000      0.00000000     -0.00000000      0.61230639     -0.18059534     -1.02945304
C             2.00000000     43.00000000     15.00000000     -0.00000000     -0.00000000      0.00000000     -2.65708123      1.02642408      1.77355484
C             7.00000000     17.00000000     32.00000000      0.00000000     -0.00000000      0.00000000     -0.24030793     -1.41711820      1.10643948
C            63.00000000     33.00000000     33.00000000      0.00000000      0.00000000      0.00000000      0.37240407     -1.45840155      0.76524172
C            37.00000000     55.00000000     28.00000000     -0.00000000     -0.00000000     -0.00000000      0.93397762     -1.12906855      1.09990999
C            42.00000000     64.00000000     55.00000000     -0.00000000     -0.00000000      0.00000000     -1.91828500     -1.36852466     -2.02842498
C            52.00000000     26.00000000     64.00000000     -0.00000000      0.00000000      0.00000000      1.65073224      1.44802305      2.74633935
C            28.00000000     45.00000000     58.00000000     -0.00000000     -0.00000000     -0.00000000     -1.36652524     -1.51905350     -0.65772714
C             6.00000000     48.00000000     28.00000000      0.00000000      0.00000000      0.00000000      1.67629608     -0.86072110     -0.18964495
C            20.00000000     59.00000000     62.00000000      0.00000000      0.00000000      0.00000000     -2.88275159      1.36077665     -0.63282829
C             9.00000000     57.00000000      8.00000000     -0.00000000     -0.00000000      0.00000000     -2.35554249     -0.21586691     -1.93861037
C            45.00000000     55.00000000     18.00000000      0.00000000     -0.00000000     -0.00000000      2.26812757      0.13525754      1.16407861
C            19.00000000     31.00000000     25.00000000      0.00000000      0.00000000      0.00000000      0.24695013      0.92277000      0.82249537
C            48.00000000     26.00000000     43.00000000      0.00000000     -0.00000000      0.00000000     -1.75251969      0.77980302     -2.02580340
C            62.00000000     30.00000000      4.00000000     -0.00000000      0.00000000      0.00000000     -0.78312324     -0.31888126      0.44194821
C             2.00000000     47.00000000     56.00000000     -0.00000000     -0.00000000      0.00000000      0.17589351      0.34099367      1.91429784
C            47.00000000     39.00000000      5.00000000     -0.00000000     -0.00000000      0.00000000     -0.30506857      0.17075671      2.17091383
C            24.00000000      9.00000000     41.00000000      0.00000000     -0.00000000      0.00000000     -1.71645710     -1.01100671      2.23420885
C            35.00000000     42.00000000     18.00000000     -0.00000000      0.00000000      0.00000000      0.74854338      0.91386755      2.06176686
C             6.00000000     30.00000000     22.00000000     -0.00000000     -0.00000000     -0.00000000      2.40944838     -0.36466833     -3.09303993
C             9.00000000     39.00000000     35.00000000      0.00000000     -0.00000000     -0.00000000      0.64389956      1.28052651      2.08629211
C            51.00000000     53.00000000     31.00000000     -0.00000000      0.00000000     -0.00000000     -0.91231641     -1.03181026      1.64203759
C            10.00000000     22.00000000     63.00000000      0.00000000      0.00000000     -0.00000000     -1.47671570      1.30118422     -0.28072857
C            27.00000000     63.00000000     37.00000000     -0.00000000      0.00000000     -0.00000000      2.85782120     -0.87846680     -0.36040722
C            30.00000000      4.00000000     49.00000000     -0.00000000     -0.00000000      0.00000000     -1.24393872     -0.25856588     -0.10172734
C            19.00000000     36.00000000     62.00000000     -0.00000000     -0.00000000     -0.00000000     -2.76506932     -0.08146017     -1.44808175
C            20.00000000     27.00000000     55.00000000     -0.00000000      0.00000000     -0.00000000      1.36730565      0.09279869     -2.38612377
C            57.00000000     38.00000000     15.00000000      0.00000000     -0.00000000     -0.00000000     -0.20437187      1.35938258     -0.58627104
C            13.00000000      5.00000000     61.00000000     -0.00000000      0.00000000      0.00000000      2.83417355     -0.07482153      2.23983597
C            55.00000000     24.00000000     32.00000000      0.00000000     -0.00000000      0.00000000      1.43941769     -1.44301417     -0.62091787
C             1.00000000     59.00000000     63.00000000     -0.00000000     -0.00000000      0.00000000     -2.82035675      0.86895977     -1.20202914
C            25.00000000     47.00000000     42.00000000      0.00000000      0.00000000     -0.00000000     -1.54154218      0.29016334      1.46229959
C            38.00000000     50.00000000     50.00000000      0.00000000     -0.00000000      0.00000000      1.59106568      0.42057995     -2.28857742
C            61.00000000     52.00000000     23.00000000      0.00000000     -0.00000000     -0.00000000      1.09591686      0.60628624      0.95127714
C            17.00000000     52.00000000     14.00000000      0.00000000      0.00000000      0.00000000      2.81019373      0.46896430     -1.26385137
C            41.00000000     54.00000000     40.00000000      0.00000000     -0.00000000      0.00000000     -0.55511458      0.27147286      0.01546757
C            51.00000000     55.00000000     58.00000000     -0.00000000      0.00000000      0.00000000      1.20468262     -0.71071457      1.45063080
C            44.00000000     63.00000000     32.00000000      0.00000000      0.00000000      0.00000000     -2.57117134      1.23694513     -0.44853964
C            46.00000000     25.00000000     21.00000000      0.00000000     -0.00000000      0.00000000      2.76504907     -0.72123857     -1.98183209
C            56.00000000     60.00000000      6.00000000      0.00000000     -0.00000000      0.00000000     -1.71029266      0.93295536     -2.58613636
C            18.00000000     47.00000000     63.00000000     -0.00000000     -0.00000000      0.00000000      2.00612720      0.74945545     -2.43162280
C            59.00000000     48.00000000     48.00000000      0.00000000      0.00000000     -0.00000000     -2.34813529     -0.43244131      3.09379308
C            42.00000000     33.00000000     62.00000000     -0.00000000     -0.00000000      0.00000000      1.92317465     -0.76173760      3.06724046
C            46.00000000     37.00000000     19.00000000      0.00000000     -0.00000000     -0.00000000      0.50738476     -0.53562830     -3.00642045
C            56.00000000     13.00000000     41.00000000     -0.00000000     -0.00000000      0.00000000     -0.35955482      1.17860010      1.54465476
C            30.00000000     30.00000000     60.00000000     -0.00000000      0.00000000      0.00000000      0.81358209     -0.62746390     -1.66767566
C            24.00000000     36.00000000     49.00000000      0.00000000      0.00000000      0.00000000     -1.22709036      0.28515565     -0.07595924
C             1.00000000     16.00000000     45.00000000     -0.00000000      0.00000000     -0.00000000      3.07591407     -0.21135592     -2.69213577
C            61.00000000     10.00000000      3.00000000      0.00000000     -0.00000000      0.00000000      0.99831262     -0.96845068      1.76105101
C            11.00000000     11.00000000      6.00000000      0.00000000      0.00000000      0.00000000      1.27903553      0.49998702      0.19998403
C             2.00000000     13.00000000     21.00000000     -0.00000000      0.00000000     -0.00000000      2.48184413     -0.98205543      2.95751418
C            48.00000000      6.00000000     23.00000000      0.00000000     -0.00000000      0.00000000     -1.70506056     -1.44497138      2.43403723
C            13.00000000     53.00000000     35.00000000     -0.00000000      0.00000000      0.00000000      0.58863256      1.04141698     -1.06655201
C            59.00000000     62.00000000     37.00000000      0.00000000      0.00000000     -0.00000000      3.05994537      0.11862464     -2.11428502
C             1.00000000     51.00000000     38.00000000      0.00000000     -0.00000000      0.00000000     -0.65503352      1.36626966     -2.88822406
C            46.00000000     38.00000000     33.00000000     -0.00000000     -0.00000000      0.00000000     -2.47645205      0.14510724     -1.20300916
C            61.00000000     35.00000000     59.00000000      0.00000000      0.00000000     -0.00000000     -2.19080432     -0.67314739     -2.55210087
C            59.00000000     26.00000000     15.00000000     -0.00000000      0.00000000      0.00000000      1.96356145     -0.91948315     -0.38238658
C             6.00000000     29.00000000     51.00000000      0.00000000     -0.00000000     -0.00000000     -2.40452785     -1.07463680     -1.58560310
C            30.00000000     64.00000000     23.00000000      0.00000000      0.00000000      0.00000000     -0.12442594     -1.28843912      2.18551033
C            14.00000000      5.00000000     15.00000000     -0.00000000      0.00000000     -0.00000000     -2.57836814      0.76465101     -0.57181222
C            22.00000000     26.00000000     38.00000000     -0.00000000      0.00000000      0.00000000     -2.18493358      0.07393170      1.58874822
C            23.00000000     26.00000000      3.00000000      0.00000000      0.00000000     -0.00000000     -2.24586322      0.87454750      1.86905174
C             2.00000000      4.00000000     34.00000000      0.00000000      0.00000000      0.00000000     -1.50502552     -0.12003741     -2.95078058
C            46.00000000     25.00000000     54.00000000      0.00000000      0.00000000      0.00000000     -1.65975880     -0.91147298     -1.82634591
C             5.00000000     57.00000000     19.00000000      0.00000000     -0.00000000      0.00000000     -1.35938838     -0.80087976      2.20132511
C            48.00000000     44.00000000     60.00000000      0.00000000     -0.00000000      0.00000000      2.75662587     -1.31039358      2.15909033
C             6.00000000     39.00000000      4.00000000     -0.00000000      0.00000000      0.00000000     -0.73796270     -1.26276431     -1.64080670
C            59.00000000     27.00000000     43.00000000      0.00000000     -0.00000000     -0.00000000     -1.97240460      1.39372932     -2.81600421
C            35.00000000     18.00000000     35.00000000      0.00000000     -0.00000000     -0.00000000      0.71424232     -0.89480466      0.60061636
C            30.00000000     45.00000000      6.00000000      0.00000000     -0.00000000      0.00000000     -2.72023101      0.45599824     -0.21279384
C            50.00000000     50.00000000      7.00000000      0.00000000      0.00000000      0.00000000     -2.29440487     -0.73918162     -2.12268946
C            39.00000000     21.00000000     62.00000000      0.00000000     -0.00000000      0.00000000      1.21630464      0.54672886      2.94317580
C            39.00000000     29.00000000     37.00000000     -0.00000000      0.00000000     -0.00000000     -1.74605064      0.26442782      1.72734711
C            35.00000000     13.00000000      5.00000000     -0.00000000     -0.00000000     -0.00000000      2.87812797     -0.69531524     -1.11840455
C            52.00000000     34.00000000     50.00000000     -0.00000000     -0.00000000     -0.00000000      2.01439102      1.52694035      1.02108274
C            13.00000000      8.00000000     36.00000000      0.00000000     -0.00000000     -0.00000000      1.16616597      0.44050242     -0.57388598
C            28.00000000     32.00000000     17.00000000     -0.00000000      0.00000000      0.00000000      2.07801864     -0.71385628      1.61256983
C            50.00000000     45.00000000     42.00000000     -0.00000000     -0.00000000      0.00000000     -1.72872136     -0.32829872     -0.22249787
C            48.00000000      1.00000000     11.00000000     -0.00000000      0.00000000      0.00000000     -2.60355172      0.63757194     -2.15750576
C            19.00000000     15.00000000     64.00000000      0.00000000     -0.00000000      0.00000000      0.17906967     -0.95203027     -3.04513635
C            47.00000000     29.00000000     10.00000000      0.00000000      0.00000000      0.00000000     -2.72223335     -0.07848462     -0.89385761
C            12.00000000     41.00000000     20.00000000      0.00000000     -0.00000000     -0.00000000      1.80452629      1.17912247     -0.70973952
C            39.00000000     10.00000000     54.00000000     -0.00000000     -0.00000000      0.00000000     -2.28371422     -0.75820463      1.87549088
C            34.00000000     56.00000000     60.00000000     -0.00000000      0.00000000     -0.00000000     -0.48714546     -0.20662915     -1.69473172
C            39.00000000      1.00000000     42.00000000     -0.00000000     -0.00000000     -0.00000000      0.03263232     -0.74359312      2.36823151
C            57.00000000      3.00000000     59.00000000      0.00000000     -0.00000000      0.00000000      2.13602201     -1.54839525      2.62135302
C            55.00000000     33.00000000     25.00000000      0.00000000      0.00000000      0.00000000     -0.04448771     -0.59909213      0.29327670
C             9.00000000     28.00000000     33.00000000      0.00000000     -0.00000000      0.00000000      0.35353050      0.84989676     -0.93597595
C            62.00000000      4.00000000     45.00000000      0.00000000     -0.00000000      0.00000000      2.93220548      0.30271189      2.26962782
C            46.00000000     17.00000000     33.00000000     -0.00000000     -0.00000000     -0.00000000     -0.42545236      1.40455257      2.15168753
C            15.00000000     20.00000000     11.00000000      0.00000000      0.00000000     -0.00000000      1.88143527      1.33945660     -1.01476146
C            32.00000000     15.00000000     47.00000000      0.00000000     -0.00000000      0.00000000      0.63448213     -0.83497231      2.31371792
C            63.00000000     53.00000000     11.00000000      0.00000000     -0.00000000     -0.00000000      2.03023648     -0.65721417      3.10741013
C            30.00000000     16.00000000     21.00000000      0.00000000     -0.00000000     -0.00000000      1.92363138      1.55377995      0.65221000
